@<TRIPOS>MOLECULE
AMB
151   153    1
SMALL
USER_CHARGES


@<TRIPOS>ATOM
      1 C1          2.0176  -16.0154  -26.0639 C.3       1 AMB         0.0000 
      2 H1          2.3851  -14.9685  -26.0437 H         1 AMB         0.0000 
      3 C2          0.5143  -15.9794  -25.7587 C.3       1 AMB         0.0000 
      4 H2          0.0284  -16.9085  -26.0405 H         1 AMB         0.0000 
      5 O1          2.8560  -16.8590  -25.2276 O.3       1 AMB         0.0000 
      6 C3          2.2021  -16.5004  -27.5403 C.3       1 AMB         0.0000 
      7 H3          1.9552  -17.5813  -27.4965 H         1 AMB         0.0000 
      8 H4          1.4600  -15.9708  -28.1750 H         1 AMB         0.0000 
      9 C4          0.2893  -15.6753  -24.3036 C.3       1 AMB         0.0000 
     10 H5          0.5798  -14.6481  -23.9965 H         1 AMB         0.0000 
     11 C5         -0.2850  -14.9564  -26.6028 C.2       1 AMB         0.0000 
     12 C6          2.5755  -16.6557  -23.8724 C.3       1 AMB         0.0000 
     13 C7          3.5998  -16.2273  -28.2290 C.3       1 AMB         0.0000 
     14 H6          3.5643  -16.7490  -29.2095 H         1 AMB         0.0000 
     15 C8          1.1443  -16.6365  -23.4126 C.3       1 AMB         0.0000 
     16 H7          0.9423  -16.4023  -22.3442 H         1 AMB         0.0000 
     17 H8          0.8459  -17.6487  -23.7522 H         1 AMB         0.0000 
     18 O2         -1.0636  -15.9070  -23.9736 O.3       1 AMB         0.0000 
     19 H9         -1.0495  -15.7720  -23.0240 H         1 AMB         0.0000 
     20 O3         -0.0329  -13.7489  -26.6116 O.2       1 AMB         0.0000 
     21 N21        -1.1390  -15.5490  -27.4655 N.am      1 AMB         0.0000 
     22 C9          3.3519  -17.6871  -23.0110 C.3       1 AMB         0.0000 
     23 H10         3.2470  -17.4630  -21.9280 H         1 AMB         0.0000 
     24 H11         2.9011  -18.6799  -23.2220 H         1 AMB         0.0000 
     25 O5          3.6832  -14.8461  -28.5035 O.3       1 AMB         0.0000 
     26 C10         4.8391  -16.6191  -27.4510 C         1 AMB         0.0000 
     27 H12         5.3419  -15.9040  -26.7830 H         1 AMB         0.0000 
     28 C11         4.8630  -17.5830  -23.2900 C.3       1 AMB         0.0000 
     29 H13         5.0872  -17.4398  -24.3797 H         1 AMB         0.0000 
     30 C12         4.0979  -14.4682  -29.8310 C.3       1 AMB         0.0000 
     31 H14         4.8070  -15.2210  -30.2360 H         1 AMB         0.0000 
     32 C13         5.4800  -17.7550  -27.5980 C         1 AMB         0.0000 
     33 H15         4.9810  -18.5360  -28.1910 H         1 AMB         0.0000 
     34 C14         5.4970  -18.9260  -22.9130 C.3       1 AMB         0.0000 
     35 H16         5.4500  -19.1780  -21.8320 H         1 AMB         0.0000 
     36 H17         4.9480  -19.7240  -23.4570 H         1 AMB         0.0000 
     37 O6          5.3940  -16.6660  -22.4040 O.3       1 AMB         0.0000 
     38 H18         5.2430  -16.9650  -21.5040 H         1 AMB         0.0000 
     39 C15         2.8641  -14.3240  -30.7492 C.3       1 AMB         0.0000 
     40 H19         2.2634  -13.5799  -30.1851 H         1 AMB         0.0000 
     41 O7          4.8230  -13.2850  -29.6520 O.3       1 AMB         0.0000 
     42 C16         6.7130  -18.0050  -26.8900 C         1 AMB         0.0000 
     43 H20         6.8760  -17.4870  -25.9330 H         1 AMB         0.0000 
     44 C17         6.9290  -19.0870  -23.3970 C.3       1 AMB         0.0000 
     45 H21         6.8860  -19.6580  -24.3490 H         1 AMB         0.0000 
     46 C18         3.1626  -13.6557  -32.0591 C.3       1 AMB         0.0000 
     47 H22         3.7160  -14.3850  -32.6870 H         1 AMB         0.0000 
     48 O8          2.0379  -15.5130  -30.8460 O.3       1 AMB         0.0000 
     49 H23         1.1221  -15.2519  -30.7111 H         1 AMB         0.0000 
     50 C19         5.2160  -12.6610  -30.8560 C.3       1 AMB         0.0000 
     51 H24         6.0260  -13.2520  -31.3360 H         1 AMB         0.0000 
     52 C20         7.6400  -18.8470  -27.3750 C         1 AMB         0.0000 
     53 H25         7.6040  -19.3170  -28.3690 H         1 AMB         0.0000 
     54 C21         7.7700  -19.9440  -22.4460 C.3       1 AMB         0.0000 
     55 H26         7.2160  -20.9060  -22.3990 H         1 AMB         0.0000 
     56 O9          7.5580  -17.8300  -23.5860 O.3       1 AMB         0.0000 
     57 H27         6.9690  -17.2180  -23.1390 H         1 AMB         0.0000 
     58 C22         3.9490  -12.3530  -31.7530 C.3       1 AMB         0.0000 
     59 H28         3.2066  -11.6732  -31.2611 H         1 AMB         0.0000 
     60 N1          1.9326  -13.3659  -32.8325 N.4       1 AMB         0.0000 
     61 H29         1.6450  -14.1957  -33.3887 H         1 AMB         0.0000 
     62 H30         1.1880  -12.9821  -32.2173 H         1 AMB         0.0000 
     63 H31         2.2889  -12.6441  -33.4899 H         1 AMB         0.0000 
     64 C23         5.8060  -11.2620  -30.5080 C.3       1 AMB         0.0000 
     65 H32         6.4840  -11.1040  -29.6420 H         1 AMB         0.0000 
     66 H33         4.9220  -10.7020  -30.1370 H         1 AMB         0.0000 
     67 H34         6.1140  -10.7810  -31.4610 H         1 AMB         0.0000 
     68 C24         8.7270  -19.1640  -26.5420 C         1 AMB         0.0000 
     69 H35         8.8260  -18.8280  -25.4990 H         1 AMB         0.0000 
     70 C25         9.2460  -20.2840  -22.9780 C.3       1 AMB         0.0000 
     71 H36         9.1230  -20.6060  -24.0340 H         1 AMB         0.0000 
     72 H37         9.7090  -19.2740  -22.9500 H         1 AMB         0.0000 
     73 O10         4.4650  -11.7370  -32.9550 O.3       1 AMB         0.0000 
     74 H38         3.7250  -11.4190  -33.4770 H         1 AMB         0.0000 
     75 C26         9.8340  -19.7360  -27.0690 C         1 AMB         0.0000 
     76 H39        10.0290  -19.9560  -28.1290 H         1 AMB         0.0000 
     77 C27        10.0310  -21.3330  -22.0950 C.3       1 AMB         0.0000 
     78 H40         9.7350  -21.4230  -21.0280 H         1 AMB         0.0000 
     79 H41         9.6540  -22.2470  -22.6010 H         1 AMB         0.0000 
     80 C28        10.9240  -20.1490  -26.1660 C         1 AMB         0.0000 
     81 H42        10.9690  -19.5750  -25.2290 H         1 AMB         0.0000 
     82 C29        11.5760  -21.3010  -22.2230 C.3       1 AMB         0.0000 
     83 H43        11.9290  -21.7230  -23.1890 H         1 AMB         0.0000 
     84 C30        11.8780  -21.0070  -26.6130 C         1 AMB         0.0000 
     85 H44        11.8040  -21.3250  -27.6640 H         1 AMB         0.0000 
     86 C31        12.1780  -22.2630  -21.1800 C.3       1 AMB         0.0000 
     87 H45        11.7140  -21.9970  -20.2060 H         1 AMB         0.0000 
     88 H46        11.8480  -23.3170  -21.2980 H         1 AMB         0.0000 
     89 O11        12.1130  -20.0200  -22.0560 O.3       1 AMB         0.0000 
     90 H47        12.0610  -19.8850  -21.1070 H         1 AMB         0.0000 
     91 C32        13.0740  -21.2470  -25.8420 C         1 AMB         0.0000 
     92 H48        12.8920  -20.7770  -24.8640 H         1 AMB         0.0000 
     93 C33        13.7310  -22.1440  -21.0930 C.3       1 AMB         0.0000 
     94 H49        14.0600  -21.6680  -22.0420 H         1 AMB         0.0000 
     95 C34        14.1670  -21.9450  -26.1970 C         1 AMB         0.0000 
     96 H50        14.4010  -22.3620  -27.1870 H         1 AMB         0.0000 
     97 C35        14.4110  -23.5320  -20.9630 C.3       1 AMB         0.0000 
     98 H51        14.1960  -24.0430  -20.0000 H         1 AMB         0.0000 
     99 H52        14.1130  -24.2680  -21.7400 H         1 AMB         0.0000 
    100 O12        14.0770  -21.4120  -19.9320 O.3       1 AMB         0.0000 
    101 H53        13.7140  -20.5380  -20.0940 H         1 AMB         0.0000 
    102 C36        15.3430  -22.1070  -25.3200 C         1 AMB         0.0000 
    103 H54        15.2690  -21.7380  -24.2860 H         1 AMB         0.0000 
    104 C37        15.9070  -23.3730  -21.0700 C.3       1 AMB         0.0000 
    105 C38        16.4010  -22.8990  -25.6060 C         1 AMB         0.0000 
    106 H55        16.3490  -23.4940  -26.5300 H         1 AMB         0.0000 
    107 O13        16.6240  -24.4670  -20.7730 O.3       1 AMB         0.0000 
    108 O14        16.4270  -22.3760  -21.6180 O.3       1 AMB         0.0000 
    109 C39        17.5560  -23.1280  -24.7610 C         1 AMB         0.0000 
    110 H56        17.8330  -22.3800  -24.0030 H         1 AMB         0.0000 
    111 C40        17.9570  -24.5930  -21.2770 C.3       1 AMB         0.0000 
    112 H57        18.3100  -23.6530  -21.7520 H         1 AMB         0.0000 
    113 C41        18.2070  -24.3510  -24.7660 C         1 AMB         0.0000 
    114 H58        18.0660  -25.0710  -25.5850 H         1 AMB         0.0000 
    115 C42        18.0000  -25.8370  -22.1840 C.3       1 AMB         0.0000 
    116 H59        17.1690  -25.8150  -22.9200 H         1 AMB         0.0000 
    117 C43        18.9480  -24.7480  -20.0990 C.3       1 AMB         0.0000 
    118 H60        20.0280  -24.6870  -20.3540 H         1 AMB         0.0000 
    119 H61        18.6110  -25.5150  -19.3690 H         1 AMB         0.0000 
    120 H62        18.7500  -23.9180  -19.3880 H         1 AMB         0.0000 
    121 C44        19.4210  -24.6000  -23.8740 C.3       1 AMB         0.0000 
    122 H63        19.6980  -23.8150  -23.1390 H         1 AMB         0.0000 
    123 C45        19.2120  -25.9380  -23.1420 C.3       1 AMB         0.0000 
    124 H64        19.0400  -26.7410  -23.8910 H         1 AMB         0.0000 
    125 C46        17.9180  -27.1010  -21.4150 C.3       1 AMB         0.0000 
    126 H65        17.9290  -27.9690  -22.1090 H         1 AMB         0.0000 
    127 H66        17.0840  -27.1100  -20.6810 H         1 AMB         0.0000 
    128 H67        18.7840  -27.3380  -20.7610 H         1 AMB         0.0000 
    129 C47        20.6830  -24.4700  -24.8060 C.3       1 AMB         0.0000 
    130 H68        21.6360  -24.7500  -24.3070 H         1 AMB         0.0000 
    131 H69        20.7590  -23.3990  -25.0910 H         1 AMB         0.0000 
    132 H70        20.5330  -25.0980  -25.7100 H         1 AMB         0.0000 
    133 O15        20.4470  -26.2270  -22.5240 O.3       1 AMB         0.0000 
    134 H71        20.4750  -27.1320  -22.2070 H         1 AMB         0.0000 
    135 O16         7.8380  -19.3820  -21.1620 O.3       1 AMB         0.0000 
    136 H72         8.7580  -19.5000  -20.9140 H         1 AMB         0.0000 
    137 O17         3.0450  -15.3591  -23.5751 O.3       1 AMB         0.0000 
    138 H73         3.9641  -15.6308  -23.6260 H         1 AMB         0.0000 
    139 H139       -1.4638  -16.4883  -27.1810 H         1 AMB         0.0000 
    140 C140       -1.8116  -14.8987  -28.6188 C.3       1 AMB         0.0000 
    141 C141       -0.7308  -14.1677  -29.4801 C.3       1 AMB         0.0000 
    142 C142       -2.8202  -15.9330  -29.2822 C.3       1 AMB         0.0000 
    143 O143       -0.9274  -14.0468  -30.8903 O.3       1 AMB         0.0000 
    144 O144       -3.1825  -15.7308  -30.6379 O.3       1 AMB         0.0000 
    145 H145       -2.5482  -16.9709  -29.1020 H         1 AMB         0.0000 
    146 H146       -3.8022  -15.8275  -28.7678 H         1 AMB         0.0000 
    147 H147        0.2416  -14.6395  -29.3462 H         1 AMB         0.0000 
    148 H148       -0.5867  -13.1988  -29.0311 H         1 AMB         0.0000 
    149 H149       -1.8750  -13.7694  -30.9576 H         1 AMB         0.0000 
    150 H150       -2.4128  -15.5365  -31.1798 H         1 AMB         0.0000 
    151 H151       -2.5009  -14.1505  -28.2295 H         1 AMB         0.0000 
@<TRIPOS>BOND
     1    1    2 1    
     2    1    3 1    
     3    1    5 1    
     4    1    6 1    
     5    3    4 1    
     6    3    9 1    
     7    3   11 1    
     8    5   12 1    
     9    6    7 1    
    10    6    8 1    
    11    6   13 1    
    12    9   10 1    
    13    9   15 1    
    14    9   18 1    
    15   11   20 2    
    16   11   21 am   BACKBONE|DICT|INTERRES
    17   12   15 1    
    18   12   22 1    
    19   12  137 1    
    20   13   14 1    
    21   13   25 1    
    22   13   26 1    
    23   15   16 1    
    24   15   17 1    
    25   18   19 1    
    26   21  139 1    
    27   21  140 1    
    28   22   23 1    
    29   22   24 1    
    30   22   28 1    
    31   25   30 1    
    32   26   27 1    
    33   26   32 1    
    34   28   29 1    
    35   28   34 1    
    36   28   37 1    
    37   30   31 1    
    38   30   39 1    
    39   30   41 1    
    40   32   33 1    
    41   32   42 1    
    42   34   35 1    
    43   34   36 1    
    44   34   44 1    
    45   37   38 1    
    46   39   40 1    
    47   39   46 1    
    48   39   48 1    
    49   41   50 1    
    50   42   43 1    
    51   42   52 1    
    52   44   45 1    
    53   44   54 1    
    54   44   56 1    
    55   46   47 1    
    56   46   58 1    
    57   46   60 1    
    58   48   49 1    
    59   50   51 1    
    60   50   58 1    
    61   50   64 1    
    62   52   53 1    
    63   52   68 1    
    64   54   55 1    
    65   54   70 1    
    66   54  135 1    
    67   56   57 1    
    68   58   59 1    
    69   58   73 1    
    70   60   61 1    
    71   60   62 1    
    72   60   63 1    
    73   64   65 1    
    74   64   66 1    
    75   64   67 1    
    76   68   69 1    
    77   68   75 1    
    78   70   71 1    
    79   70   72 1    
    80   70   77 1    
    81   73   74 1    
    82   75   76 1    
    83   75   80 1    
    84   77   78 1    
    85   77   79 1    
    86   77   82 1    
    87   80   81 1    
    88   80   84 1    
    89   82   83 1    
    90   82   86 1    
    91   82   89 1    
    92   84   85 1    
    93   84   91 1    
    94   86   87 1    
    95   86   88 1    
    96   86   93 1    
    97   89   90 1    
    98   91   92 1    
    99   91   95 1    
   100   93   94 1    
   101   93   97 1    
   102   93  100 1    
   103   95   96 1    
   104   95  102 1    
   105   97   98 1    
   106   97   99 1    
   107   97  104 1    
   108  100  101 1    
   109  102  103 1    
   110  102  105 1    
   111  104  107 1    
   112  104  108 1    
   113  105  106 1    
   114  105  109 1    
   115  107  111 1    
   116  109  110 1    
   117  109  113 1    
   118  111  112 1    
   119  111  115 1    
   120  111  117 1    
   121  113  114 1    
   122  113  121 1    
   123  115  116 1    
   124  115  123 1    
   125  115  125 1    
   126  117  118 1    
   127  117  119 1    
   128  117  120 1    
   129  121  122 1    
   130  121  123 1    
   131  121  129 1    
   132  123  124 1    
   133  123  133 1    
   134  125  126 1    
   135  125  127 1    
   136  125  128 1    
   137  129  130 1    
   138  129  131 1    
   139  129  132 1    
   140  133  134 1    
   141  135  136 1    
   142  137  138 1    
   143  140  141 1    
   144  140  142 1    
   145  140  151 1    
   146  141  143 1    
   147  141  147 1    
   148  141  148 1    
   149  142  144 1    
   150  142  145 1    
   151  142  146 1    
   152  143  149 1    
   153  144  150 1    
@<TRIPOS>SUBSTRUCTURE
     1 AMB         1 GROUP             0       ****    0 ROOT    
