@<TRIPOS>MOLECULE
AMB
151   153    1
SMALL
USER_CHARGES


@<TRIPOS>ATOM
      1 C1          1.9219  -16.0569  -26.4494 C.3       1 AMB         0.0000 
      2 H1          2.3288  -15.0325  -26.3114 H         1 AMB         0.0000 
      3 C2          0.3956  -16.0849  -26.0275 C.3       1 AMB         0.0000 
      4 H2         -0.0666  -17.0291  -26.1584 H         1 AMB         0.0000 
      5 O1          2.7659  -16.8901  -25.6171 O.3       1 AMB         0.0000 
      6 C3          2.1170  -16.5559  -27.9159 C.3       1 AMB         0.0000 
      7 H3          1.9601  -17.6542  -27.9112 H         1 AMB         0.0000 
      8 H4          1.3563  -16.1304  -28.6051 H         1 AMB         0.0000 
      9 C4          0.3168  -15.7452  -24.5727 C.3       1 AMB         0.0000 
     10 H5          0.7966  -14.7721  -24.3351 H         1 AMB         0.0000 
     11 C5         -0.5016  -15.0948  -26.7825 C.2       1 AMB         0.0000 
     12 C6          2.6723  -16.6007  -24.2189 C.3       1 AMB         0.0000 
     13 C7          3.5334  -16.2677  -28.4510 C.3       1 AMB         0.0000 
     14 H6          3.4453  -16.6618  -29.4847 H         1 AMB         0.0000 
     15 C8          1.1817  -16.7715  -23.8065 C.3       1 AMB         0.0000 
     16 H7          1.1728  -16.5353  -22.7222 H         1 AMB         0.0000 
     17 H8          0.8562  -17.7976  -24.0785 H         1 AMB         0.0000 
     18 O2         -1.0052  -15.7323  -24.0917 O.3       1 AMB         0.0000 
     19 H9         -1.4382  -14.9729  -24.4910 H         1 AMB         0.0000 
     20 O3         -0.2144  -13.9274  -26.6877 O.2       1 AMB         0.0000 
     21 C9          3.6081  -17.4641  -23.3017 C.3       1 AMB         0.0000 
     22 H10         3.2933  -17.1503  -22.2831 H         1 AMB         0.0000 
     23 H11         3.3082  -18.4997  -23.5648 H         1 AMB         0.0000 
     24 O5          3.7005  -14.8648  -28.4274 O.3       1 AMB         0.0000 
     25 C10         4.8369  -16.7804  -27.9155 C         1 AMB         0.0000 
     26 H12         5.2509  -16.1182  -27.1421 H         1 AMB         0.0000 
     27 C11         5.0970  -17.3690  -23.5240 C.3       1 AMB         0.0000 
     28 H13         5.2990  -17.2600  -24.6110 H         1 AMB         0.0000 
     29 C12         3.9372  -14.1752  -29.6442 C.3       1 AMB         0.0000 
     30 H14         4.6000  -14.8710  -30.2010 H         1 AMB         0.0000 
     31 C13         5.4970  -17.9000  -28.2770 C         1 AMB         0.0000 
     32 H15         5.2290  -18.5100  -29.1520 H         1 AMB         0.0000 
     33 C14         5.7270  -18.7050  -22.9920 C.3       1 AMB         0.0000 
     34 H16         5.5980  -18.7370  -21.8890 H         1 AMB         0.0000 
     35 H17         5.1420  -19.5480  -23.4180 H         1 AMB         0.0000 
     36 O6          5.7380  -16.2310  -22.8670 O.3       1 AMB         0.0000 
     37 H18         5.3970  -16.1190  -21.9770 H         1 AMB         0.0000 
     38 C15         2.6630  -14.0585  -30.4596 C.3       1 AMB         0.0000 
     39 H19         2.2412  -15.0839  -30.5324 H         1 AMB         0.0000 
     40 O7          4.6130  -12.9870  -29.3740 O.3       1 AMB         0.0000 
     41 C16         6.7580  -18.2130  -27.6030 C         1 AMB         0.0000 
     42 H20         7.1630  -17.4340  -26.9400 H         1 AMB         0.0000 
     43 C17         7.1010  -19.0530  -23.4420 C.3       1 AMB         0.0000 
     44 H21         7.1220  -19.6550  -24.3760 H         1 AMB         0.0000 
     45 C18         3.0825  -13.5673  -31.8111 C.3       1 AMB         0.0000 
     46 H22         3.7830  -14.2420  -32.3460 H         1 AMB         0.0000 
     47 O8          1.7536  -13.2123  -29.7110 O.3       1 AMB         0.0000 
     48 H23         0.9104  -13.6742  -29.7329 H         1 AMB         0.0000 
     49 C19         5.0190  -12.3620  -30.6550 C.3       1 AMB         0.0000 
     50 H24         5.8130  -12.9560  -31.1550 H         1 AMB         0.0000 
     51 C20         7.4400  -19.3470  -27.7370 C         1 AMB         0.0000 
     52 H25         7.0570  -20.1040  -28.4360 H         1 AMB         0.0000 
     53 C21         7.8050  -20.0020  -22.3790 C.3       1 AMB         0.0000 
     54 H26         7.1540  -20.8720  -22.1510 H         1 AMB         0.0000 
     55 O9          7.8300  -17.8460  -23.7270 O.3       1 AMB         0.0000 
     56 H27         7.1230  -17.2260  -23.5330 H         1 AMB         0.0000 
     57 C22         3.7910  -12.2170  -31.6220 C.3       1 AMB         0.0000 
     58 H28         3.1003  -11.6012  -30.9902 H         1 AMB         0.0000 
     59 N1          1.9201  -13.4067  -32.7797 N.4       1 AMB         0.0000 
     60 H29         1.3134  -14.2435  -32.8735 H         1 AMB         0.0000 
     61 H30         1.2381  -12.6884  -32.4676 H         1 AMB         0.0000 
     62 H31         2.3470  -13.1420  -33.6850 H         1 AMB         0.0000 
     63 C23         5.6730  -11.0570  -30.2220 C.3       1 AMB         0.0000 
     64 H32         5.8090  -10.4870  -31.1660 H         1 AMB         0.0000 
     65 H33         6.6460  -11.2160  -29.7100 H         1 AMB         0.0000 
     66 H34         5.1280  -10.4280  -29.4850 H         1 AMB         0.0000 
     67 C24         8.8320  -19.5310  -27.2030 C         1 AMB         0.0000 
     68 H35         9.1740  -18.6910  -26.5800 H         1 AMB         0.0000 
     69 C25         9.2470  -20.4060  -22.8410 C.3       1 AMB         0.0000 
     70 H36         9.3120  -21.0470  -23.7460 H         1 AMB         0.0000 
     71 H37         9.7560  -19.4350  -23.0220 H         1 AMB         0.0000 
     72 O10         4.1350  -11.5880  -32.8370 O.3       1 AMB         0.0000 
     73 H38         3.8180  -10.7170  -32.5860 H         1 AMB         0.0000 
     74 C26         9.7100  -20.4840  -27.3890 C         1 AMB         0.0000 
     75 H39         9.5510  -21.2790  -28.1330 H         1 AMB         0.0000 
     76 C27        10.0970  -21.0650  -21.7950 C.3       1 AMB         0.0000 
     77 H40        10.2990  -20.3260  -20.9900 H         1 AMB         0.0000 
     78 H41         9.4510  -21.8740  -21.3920 H         1 AMB         0.0000 
     79 C28        10.9750  -20.5700  -26.6490 C         1 AMB         0.0000 
     80 H42        11.1510  -19.9530  -25.7550 H         1 AMB         0.0000 
     81 C29        11.3780  -21.6760  -22.3710 C.3       1 AMB         0.0000 
     82 H43        11.1130  -22.5180  -23.0460 H         1 AMB         0.0000 
     83 C30        11.9910  -21.3790  -27.0810 C         1 AMB         0.0000 
     84 H44        11.7420  -22.0990  -27.8740 H         1 AMB         0.0000 
     85 C31        12.4390  -22.0740  -21.3730 C.3       1 AMB         0.0000 
     86 H45        12.4120  -21.4930  -20.4270 H         1 AMB         0.0000 
     87 H46        12.0850  -23.1030  -21.1510 H         1 AMB         0.0000 
     88 O11        11.9980  -20.6990  -23.1860 O.3       1 AMB         0.0000 
     89 H47        12.7810  -20.5260  -22.6600 H         1 AMB         0.0000 
     90 C32        13.2250  -21.4580  -26.2660 C         1 AMB         0.0000 
     91 H48        13.2940  -20.8320  -25.3640 H         1 AMB         0.0000 
     92 C33        13.8740  -22.1800  -21.9030 C.3       1 AMB         0.0000 
     93 H49        13.8190  -22.3290  -23.0030 H         1 AMB         0.0000 
     94 C34        14.1790  -22.3470  -26.5060 C         1 AMB         0.0000 
     95 H50        14.0490  -23.0000  -27.3810 H         1 AMB         0.0000 
     96 C35        14.6130  -23.4000  -21.3220 C.3       1 AMB         0.0000 
     97 H51        14.5700  -23.4220  -20.2120 H         1 AMB         0.0000 
     98 H52        14.1360  -24.3320  -21.6940 H         1 AMB         0.0000 
     99 O12        14.5420  -20.9810  -21.5300 O.3       1 AMB         0.0000 
    100 H53        15.4470  -21.1460  -21.8040 H         1 AMB         0.0000 
    101 C36        15.4450  -22.4520  -25.7150 C         1 AMB         0.0000 
    102 H54        15.5980  -21.6640  -24.9630 H         1 AMB         0.0000 
    103 C37        16.1060  -23.3870  -21.5680 C.3       1 AMB         0.0000 
    104 C38        16.3970  -23.4230  -25.8550 C         1 AMB         0.0000 
    105 H55        16.1580  -24.1850  -26.6120 H         1 AMB         0.0000 
    106 O13        16.6080  -24.5330  -21.1440 O.3       1 AMB         0.0000 
    107 O14        16.6940  -22.4820  -22.2360 O.3       1 AMB         0.0000 
    108 C39        17.5620  -23.5900  -25.0340 C         1 AMB         0.0000 
    109 H56        17.7190  -22.8040  -24.2810 H         1 AMB         0.0000 
    110 C40        18.0440  -24.7570  -21.3720 C.3       1 AMB         0.0000 
    111 H57        18.5410  -23.8440  -21.7620 H         1 AMB         0.0000 
    112 C41        18.3710  -24.5960  -25.0790 C         1 AMB         0.0000 
    113 H58        18.1620  -25.3330  -25.8680 H         1 AMB         0.0000 
    114 C42        18.1430  -25.9430  -22.3350 C.3       1 AMB         0.0000 
    115 H59        17.2550  -25.7660  -22.9790 H         1 AMB         0.0000 
    116 C43        18.7010  -25.1130  -20.0020 C.3       1 AMB         0.0000 
    117 H60        18.2690  -26.0090  -19.5070 H         1 AMB         0.0000 
    118 H61        18.5630  -24.1770  -19.4200 H         1 AMB         0.0000 
    119 H62        19.7830  -25.3420  -20.1070 H         1 AMB         0.0000 
    120 C44        19.5490  -24.8590  -24.1200 C.3       1 AMB         0.0000 
    121 H63        19.7010  -24.0600  -23.3630 H         1 AMB         0.0000 
    122 C45        19.3770  -26.1010  -23.2670 C.3       1 AMB         0.0000 
    123 H64        19.3090  -27.0420  -23.8540 H         1 AMB         0.0000 
    124 C46        17.8750  -27.3210  -21.7000 C.3       1 AMB         0.0000 
    125 H65        17.1290  -27.2650  -20.8790 H         1 AMB         0.0000 
    126 H66        18.6970  -27.7610  -21.0960 H         1 AMB         0.0000 
    127 H67        17.5720  -28.1160  -22.4140 H         1 AMB         0.0000 
    128 C47        20.8160  -24.8900  -25.0990 C.3       1 AMB         0.0000 
    129 H68        21.7520  -24.9150  -24.5010 H         1 AMB         0.0000 
    130 H69        20.8840  -24.0130  -25.7770 H         1 AMB         0.0000 
    131 H70        20.6490  -25.7860  -25.7350 H         1 AMB         0.0000 
    132 O15        20.5120  -26.2480  -22.4140 O.3       1 AMB         0.0000 
    133 H71        20.5370  -27.1730  -22.1600 H         1 AMB         0.0000 
    134 O16         7.8660  -19.3760  -21.1380 O.3       1 AMB         0.0000 
    135 H72         8.3870  -18.5860  -21.3000 H         1 AMB         0.0000 
    136 O17         3.1575  -15.3244  -23.9550 O.3       1 AMB         0.0000 
    137 H73         4.1070  -15.4628  -23.9881 H         1 AMB         0.0000 
    138 N138       -1.5367  -15.4636  -27.5608 N.am      1 AMB         0.0000 
    139 C139       -2.3120  -14.5404  -28.4219 C.3       1 AMB         0.0000 
    140 H140       -1.9352  -16.3101  -27.2750 H         1 AMB         0.0000 
    141 C141       -1.2548  -13.6520  -29.2347 C.3       1 AMB         0.0000 
    142 C142       -3.5211  -15.1673  -29.1869 C.3       1 AMB         0.0000 
    143 O143       -1.3913  -13.3764  -30.5946 O.3       1 AMB         0.0000 
    144 O144       -3.9667  -14.4672  -30.3380 O.3       1 AMB         0.0000 
    145 H145       -1.9787  -12.6419  -30.7911 H         1 AMB         0.0000 
    146 H146       -0.3428  -14.2201  -29.2613 H         1 AMB         0.0000 
    147 H147       -1.0679  -12.7266  -28.7146 H         1 AMB         0.0000 
    148 H148       -4.2766  -15.5716  -28.5090 H         1 AMB         0.0000 
    149 H149       -3.3753  -16.0645  -29.7386 H         1 AMB         0.0000 
    150 H150       -3.4167  -13.6859  -30.5151 H         1 AMB         0.0000 
    151 H151       -2.7218  -13.8821  -27.7019 H         1 AMB         0.0000 
@<TRIPOS>BOND
     1    1    2 1    
     2    1    3 1    
     3    1    5 1    
     4    1    6 1    
     5    3    4 1    
     6    3    9 1    
     7    3   11 1    
     8    5   12 1    
     9    6    7 1    
    10    6    8 1    
    11    6   13 1    
    12    9   10 1    
    13    9   15 1    
    14    9   18 1    
    15   11   20 2    
    16   11  138 am   BACKBONE|DICT|INTERRES
    17   12   15 1    
    18   12   21 1    
    19   12  136 1    
    20   13   14 1    
    21   13   24 1    
    22   13   25 1    
    23   15   16 1    
    24   15   17 1    
    25   18   19 1    
    26   21   22 1    
    27   21   23 1    
    28   21   27 1    
    29   24   29 1    
    30   25   26 1    
    31   25   31 1    
    32   27   28 1    
    33   27   33 1    
    34   27   36 1    
    35   29   30 1    
    36   29   38 1    
    37   29   40 1    
    38   31   32 1    
    39   31   41 1    
    40   33   34 1    
    41   33   35 1    
    42   33   43 1    
    43   36   37 1    
    44   38   39 1    
    45   38   45 1    
    46   38   47 1    
    47   40   49 1    
    48   41   42 1    
    49   41   51 1    
    50   43   44 1    
    51   43   53 1    
    52   43   55 1    
    53   45   46 1    
    54   45   57 1    
    55   45   59 1    
    56   47   48 1    
    57   49   50 1    
    58   49   57 1    
    59   49   63 1    
    60   51   52 1    
    61   51   67 1    
    62   53   54 1    
    63   53   69 1    
    64   53  134 1    
    65   55   56 1    
    66   57   58 1    
    67   57   72 1    
    68   59   60 1    
    69   59   61 1    
    70   59   62 1    
    71   63   64 1    
    72   63   65 1    
    73   63   66 1    
    74   67   68 1    
    75   67   74 1    
    76   69   70 1    
    77   69   71 1    
    78   69   76 1    
    79   72   73 1    
    80   74   75 1    
    81   74   79 1    
    82   76   77 1    
    83   76   78 1    
    84   76   81 1    
    85   79   80 1    
    86   79   83 1    
    87   81   82 1    
    88   81   85 1    
    89   81   88 1    
    90   83   84 1    
    91   83   90 1    
    92   85   86 1    
    93   85   87 1    
    94   85   92 1    
    95   88   89 1    
    96   90   91 1    
    97   90   94 1    
    98   92   93 1    
    99   92   96 1    
   100   92   99 1    
   101   94   95 1    
   102   94  101 1    
   103   96   97 1    
   104   96   98 1    
   105   96  103 1    
   106   99  100 1    
   107  101  102 1    
   108  101  104 1    
   109  103  106 1    
   110  103  107 1    
   111  104  105 1    
   112  104  108 1    
   113  106  110 1    
   114  108  109 1    
   115  108  112 1    
   116  110  111 1    
   117  110  114 1    
   118  110  116 1    
   119  112  113 1    
   120  112  120 1    
   121  114  115 1    
   122  114  122 1    
   123  114  124 1    
   124  116  117 1    
   125  116  118 1    
   126  116  119 1    
   127  120  121 1    
   128  120  122 1    
   129  120  128 1    
   130  122  123 1    
   131  122  132 1    
   132  124  125 1    
   133  124  126 1    
   134  124  127 1    
   135  128  129 1    
   136  128  130 1    
   137  128  131 1    
   138  132  133 1    
   139  134  135 1    
   140  136  137 1    
   141  138  139 1    
   142  138  140 1    
   143  139  141 1    
   144  139  142 1    
   145  139  151 1    
   146  141  143 1    
   147  141  146 1    
   148  141  147 1    
   149  142  144 1    
   150  142  148 1    
   151  142  149 1    
   152  143  145 1    
   153  144  150 1    
@<TRIPOS>SUBSTRUCTURE
     1 AMB         1 GROUP             0       ****    0 ROOT    
