@<TRIPOS>COMMENT
 LIGANDBOX_ID = KEGG_DURG-00000175-01
 SOURCE = KEGG_DRUG
 SUPPLIER = KEGG_DRUG
 IDNUMBER = D00203
 MOLECULAR_FORMULA = C47H73NO17
 MOLECULAR_WEIGHT = 924.091
 MOLECULAR_CHARGE = 0
 NUM_OF_DONOR = 13
 NUM_OF_ACCEPTOR = 17
 HOMO = -6.7760
 LUMO = -2.0482
 NUM_OF_CHIRAL_ATOMS = 19
 LOGS = -7.0464
 LOGP = 0.5545
 NOTE = 

@<TRIPOS>MOLECULE
KEGG_DURG-00000175-01
 138 140 0 0 0
SMALL
USER_CHARGES

@<TRIPOS>ATOM
     1 C1          33.0310   -16.8600     0.0780 C.3       1  AMF         0.0678
     2 H1          33.2120   -17.0320     1.1400 H         1  AMF         0.1088
     3 C2          34.3110   -16.2640    -0.5590 C.3       1  AMF        -0.2219
     4 H2          34.1630   -16.2100    -1.6380 H         1  AMF         0.1037
     5 O1          31.9450   -15.9120    -0.0630 O.3       1  AMF        -0.3139
     6 C3          32.6020   -18.1840    -0.5990 C.3       1  AMF        -0.1356
     7 H3          32.1810   -17.9670    -1.5800 H         1  AMF         0.1232
     8 H4          33.4800   -18.8090    -0.7600 H         1  AMF         0.1232
     9 C4          34.5720   -14.8330    -0.0300 C.3       1  AMF         0.0650
    10 H5          34.8350   -14.8880     1.0270 H         1  AMF         0.0880
    11 C5          35.5190   -17.1460    -0.2800 C.2       1  AMF         0.3076
    12 C6          32.1090   -14.5830     0.4900 C.3       1  AMF         0.2172
    13 C7          31.5910   -19.0180     0.2160 C.3       1  AMF         0.0796
    14 H6          31.4200   -19.9510    -0.3210 H         1  AMF         0.0735
    15 C8          33.3300   -13.9340    -0.1940 C.3       1  AMF        -0.1988
    16 H7          33.5230   -12.9560     0.2470 H         1  AMF         0.0942
    17 H8          33.1220   -13.7960    -1.2550 H         1  AMF         0.0942
    18 O2          35.6730   -14.2460    -0.7370 O.3       1  AMF        -0.3549
    19 H9          36.4400   -14.8160    -0.6470 H         1  AMF         0.2350
    20 O3          35.8040   -17.4750     0.9050 O.co2     1  AMF        -0.5693
    21 O4          36.2360   -17.5450    -1.2350 O.co2     1  AMF        -0.5693
    22 C9          30.8100   -13.7780     0.2260 C.3       1  AMF        -0.1978
    23 H10         30.8450   -12.8430     0.7840 H         1  AMF         0.0991
    24 H11         30.7690   -13.5220    -0.8330 H         1  AMF         0.0991
    25 O5          32.2100   -19.3490     1.4870 O.3       1  AMF        -0.2603
    26 C10         30.2490   -18.3350     0.4360 C.2       1  AMF        -0.1318
    27 H12         30.2070   -17.4630     1.0720 H         1  AMF         0.1420
    28 C11         29.5130   -14.5460     0.5860 C.3       1  AMF         0.0404
    29 H13         29.4640   -15.4530    -0.0160 H         1  AMF         0.0865
    30 C12         31.5870   -20.3300     2.3580 C.3       1  AMF         0.1359
    31 H14         31.5140   -21.2730     1.7820 H         1  AMF         0.0946
    32 C13         29.1260   -18.8510    -0.0430 C.2       1  AMF        -0.1508
    33 H15         29.1810   -19.7510    -0.6400 H         1  AMF         0.1159
    34 C14         28.2520   -13.7020     0.2890 C.3       1  AMF        -0.1827
    35 H16         28.2140   -12.8600     0.9810 H         1  AMF         0.1050
    36 H17         28.3330   -13.2980    -0.7200 H         1  AMF         0.1050
    37 O6          29.5420   -14.9120     1.9730 O.3       1  AMF        -0.3695
    38 H18         30.3300   -15.4340     2.1450 H         1  AMF         0.2297
    39 C15         32.4430   -20.5620     3.6290 C.3       1  AMF         0.0238
    40 H19         33.2240   -19.3980     3.9530 H         1  AMF         0.1388
    41 O7          30.2430   -19.9730     2.7520 O.3       1  AMF        -0.3116
    42 C16         27.9340   -18.3340     0.2300 C.2       1  AMF        -0.1148
    43 H20         27.8930   -17.4220     0.8070 H         1  AMF         0.1169
    44 C17         26.9400   -14.5250     0.3720 C.3       1  AMF         0.0079
    45 H21         27.0250   -15.3700    -0.3120 H         1  AMF         0.0728
    46 C18         31.5760   -20.9660     4.8560 C.3       1  AMF        -0.0490
    47 H22         32.1950   -21.5930     5.5210 H         1  AMF         0.1539
    48 O8          33.1310   -21.3790     3.4130 O.3       1  AMF        -0.3690
    49 H23         33.1310   -21.3790     2.5000 H         1  AMF         0.2998
    50 C19         29.4710   -21.0260     3.3800 C.3       1  AMF        -0.0023
    51 H24         29.1630   -21.7280     2.6030 H         1  AMF         0.1156
    52 C20         26.7920   -18.9030    -0.1360 C.2       1  AMF        -0.1350
    53 H25         26.8300   -19.8270    -0.6990 H         1  AMF         0.1172
    54 C21         25.6930   -13.7010    -0.0350 C.3       1  AMF         0.0541
    55 H26         25.8140   -13.3610    -1.0640 H         1  AMF         0.1174
    56 O9          26.7570   -15.0420     1.7010 O.3       1  AMF        -0.3592
    57 H27         27.5330   -15.5470     1.9550 H         1  AMF         0.2260
    58 C22         30.3260   -21.7750     4.4380 C.3       1  AMF        -0.0141
    59 H28         29.7210   -21.9880     5.3200 H         1  AMF         0.0865
    60 N1          31.1670   -19.7700     5.6800 N.4       1  AMF        -0.0639
    61 H29         30.6440   -20.0800     6.5110 H         1  AMF         0.2660
    62 H30         30.5760   -19.1500     5.1080 H         1  AMF         0.2660
    63 H31         32.0110   -19.2560     5.9730 H         1  AMF         0.2660
    64 C23         28.2080   -20.3930     3.9830 C.3       1  AMF        -0.2108
    65 H32         28.4710   -19.6740     4.7570 H         1  AMF         0.0936
    66 H33         27.5760   -21.1670     4.4170 H         1  AMF         0.0936
    67 H34         27.6440   -19.8820     3.2030 H         1  AMF         0.0936
    68 C24         25.6050   -18.4000     0.1850 C.2       1  AMF        -0.1374
    69 H35         25.5710   -17.4760     0.7450 H         1  AMF         0.1244
    70 C25         24.4050   -14.5570     0.0530 C.3       1  AMF        -0.1921
    71 H36         24.4560   -15.3510    -0.6920 H         1  AMF         0.0864
    72 H37         24.3700   -15.0310     1.0310 H         1  AMF         0.0864
    73 O10         30.7600   -23.0300     3.8990 O.3       1  AMF        -0.3150
    74 H38         29.9960   -23.5790     3.7050 H         1  AMF         0.2374
    75 C26         24.4580   -18.9890    -0.1310 C.2       1  AMF        -0.1171
    76 H39         24.4890   -19.9180    -0.6860 H         1  AMF         0.1176
    77 C27         23.1000   -13.7570    -0.1570 C.3       1  AMF        -0.1878
    78 H40         23.0970   -12.8840     0.4930 H         1  AMF         0.0981
    79 H41         23.0600   -13.4070    -1.1890 H         1  AMF         0.0981
    80 C28         23.2750   -18.4970     0.2190 C.2       1  AMF        -0.1444
    81 H42         23.2460   -17.5850     0.7990 H         1  AMF         0.1105
    82 C29         21.8350   -14.5890     0.1550 C.3       1  AMF         0.0389
    83 H43         21.7620   -15.4190    -0.5500 H         1  AMF         0.0727
    84 C30         22.1270   -19.0820    -0.1010 C.2       1  AMF        -0.1002
    85 H44         22.1580   -19.9940    -0.6820 H         1  AMF         0.1175
    86 C31         20.5790   -13.6930     0.0180 C.3       1  AMF        -0.1883
    87 H45         20.7240   -12.7710     0.5820 H         1  AMF         0.0980
    88 H46         20.4850   -13.4170    -1.0330 H         1  AMF         0.0980
    89 O11         21.9310   -15.1300     1.4810 O.3       1  AMF        -0.3536
    90 H47         22.6880   -15.7180     1.5330 H         1  AMF         0.2117
    91 C32         20.9420   -18.6060     0.2660 C.2       1  AMF        -0.1543
    92 H48         20.9080   -17.7310     0.9010 H         1  AMF         0.1257
    93 C33         19.2580   -14.3520     0.4800 C.3       1  AMF         0.0585
    94 H49         19.1840   -15.3550     0.0560 H         1  AMF         0.0768
    95 C34         19.7970   -19.1630    -0.1110 C.2       1  AMF        -0.0915
    96 H50         19.8350   -20.0330    -0.7520 H         1  AMF         0.1147
    97 C35         18.0450   -13.5150     0.0120 C.3       1  AMF        -0.1445
    98 H51         18.0940   -12.5150     0.4420 H         1  AMF         0.1176
    99 H52         18.0900   -13.4110    -1.0720 H         1  AMF         0.1176
   100 O12         19.2430   -14.4370     1.9130 O.3       1  AMF        -0.3243
   101 H53         19.9740   -14.9870     2.2060 H         1  AMF         0.2253
   102 C36         18.6070   -18.7040     0.2610 C.2       1  AMF        -0.1507
   103 H54         18.5630   -17.8960     0.9800 H         1  AMF         0.1350
   104 C37         16.7090   -14.1390     0.3840 C.2       1  AMF         0.2980
   105 C38         17.4700   -19.1890    -0.2240 C.2       1  AMF        -0.0915
   106 H55         17.5200   -19.9810    -0.9610 H         1  AMF         0.1110
   107 O13         15.7600   -13.8850    -0.5600 O.3       1  AMF        -0.2753
   108 O14         16.4930   -14.8170     1.4290 O.2       1  AMF        -0.3339
   109 C39         16.2760   -18.7370     0.1350 C.2       1  AMF        -0.1532
   110 H56         16.2080   -18.0830     0.9920 H         1  AMF         0.1533
   111 C40         14.4590   -14.5260    -0.4600 C.3       1  AMF         0.0452
   112 H57         14.1400   -14.4250     0.5760 H         1  AMF         0.0843
   113 C41         15.1680   -19.0350    -0.5350 C.2       1  AMF        -0.1272
   114 H58         15.2390   -19.6820    -1.4000 H         1  AMF         0.1187
   115 C42         14.6080   -16.0390    -0.8300 C.3       1  AMF        -0.1569
   116 H59         15.6370   -16.3180    -0.6200 H         1  AMF         0.1139
   117 C43         13.4470   -13.7190    -1.2930 C.3       1  AMF        -0.2050
   118 H60         12.4720   -14.2040    -1.2690 H         1  AMF         0.0876
   119 H61         13.7780   -13.6200    -2.3260 H         1  AMF         0.0876
   120 H62         13.3440   -12.7200    -0.8700 H         1  AMF         0.0876
   121 C44         13.7960   -18.4870    -0.1460 C.3       1  AMF        -0.0683
   122 H63         13.5280   -18.9660     0.7970 H         1  AMF         0.1164
   123 C45         13.7020   -16.9420     0.0630 C.3       1  AMF         0.0596
   124 H64         12.6670   -16.6350    -0.0920 H         1  AMF         0.0647
   125 C46         14.4200   -16.2820    -2.3430 C.3       1  AMF        -0.1988
   126 H65         14.7440   -17.2850    -2.6130 H         1  AMF         0.0769
   127 H66         15.0290   -15.5820    -2.9120 H         1  AMF         0.0769
   128 H67         13.3750   -16.1610    -2.6270 H         1  AMF         0.0769
   129 C47         12.7060   -18.9550    -1.1300 C.3       1  AMF        -0.2103
   130 H68         12.6980   -20.0430    -1.1780 H         1  AMF         0.0763
   131 H69         12.8800   -18.5690    -2.1310 H         1  AMF         0.0763
   132 H70         11.7250   -18.6230    -0.7900 H         1  AMF         0.0763
   133 O15         13.9970   -16.6930     1.4480 O.3       1  AMF        -0.3364
   134 H71         13.8760   -15.7620     1.6440 H         1  AMF         0.2107
   135 O16         25.5900   -12.5400     0.8050 O.3       1  AMF        -0.3316
   136 H72         25.5260   -12.8210     1.7220 H         1  AMF         0.2170
   137 O17         32.3590   -14.6560     1.9050 O.3       1  AMF        -0.3697
   138 H73         32.4690   -13.7690     2.2550 H         1  AMF         0.2198

@<TRIPOS>BOND
     1     1     3   1
     2     1     5   1
     3     1     6   1
     4     3     9   1
     5     3    11   1
     6     5    12   1
     7     6    13   1
     8     9    15   1
     9     9    18   1
    10    11    20   1
    11    11    21   2
    12    12    22   1
    13    13    25   1
    14    13    26   1
    15    22    28   1
    16    25    30   1
    17    26    32   2
    18    28    34   1
    19    28    37   1
    20    30    39   1
    21    30    41   1
    22    32    42   1
    23    34    44   1
    24    39    46   1
    25    39    40   1
    26    41    50   1
    27    42    52   2
    28    44    54   1
    29    44    56   1
    30    46    58   1
    31    46    60   1
    32    50    64   1
    33    52    68   1
    34    54    70   1
    35    58    73   1
    36    68    75   2
    37    70    77   1
    38    75    80   1
    39    77    82   1
    40    80    84   2
    41    82    86   1
    42    82    89   1
    43    84    91   1
    44    86    93   1
    45    91    95   2
    46    93    97   1
    47    93   100   1
    48    95   102   1
    49    97   104   1
    50   102   105   2
    51   104   107   1
    52   104   108   2
    53   105   109   1
    54   107   111   1
    55   109   113   2
    56   111   115   1
    57   111   117   1
    58   113   121   1
    59   115   123   1
    60   115   125   1
    61   121   129   1
    62   123   133   1
    63    12    15   1
    64    50    58   1
    65   121   123   1
    66     1     2   1
    67    54   135   1
    68    12   137   1
    69     3     4   1
    70     6     7   1
    71     6     8   1
    72     9    10   1
    73    13    14   1
    74    15    16   1
    75    15    17   1
    76    18    19   1
    77    22    23   1
    78    22    24   1
    79    26    27   1
    80    28    29   1
    81    30    31   1
    82    32    33   1
    83    34    35   1
    84    34    36   1
    85    37    38   1
    86    39    48   1
    87    42    43   1
    88    44    45   1
    89    46    47   1
    90    48    49   1
    91    50    51   1
    92    52    53   1
    93    54    55   1
    94    56    57   1
    95    58    59   1
    96    60    61   1
    97    60    62   1
    98    60    63   1
    99    64    65   1
   100    64    66   1
   101    64    67   1
   102    68    69   1
   103    70    71   1
   104    70    72   1
   105    73    74   1
   106    75    76   1
   107    77    78   1
   108    77    79   1
   109    80    81   1
   110    82    83   1
   111    84    85   1
   112    86    87   1
   113    86    88   1
   114    89    90   1
   115    91    92   1
   116    93    94   1
   117    95    96   1
   118    97    98   1
   119    97    99   1
   120   100   101   1
   121   102   103   1
   122   105   106   1
   123   109   110   1
   124   111   112   1
   125   113   114   1
   126   115   116   1
   127   117   118   1
   128   117   119   1
   129   117   120   1
   130   121   122   1
   131   123   124   1
   132   125   126   1
   133   125   127   1
   134   125   128   1
   135   129   130   1
   136   129   131   1
   137   129   132   1
   138   133   134   1
   139   135   136   1
   140   137   138   1

